


ELBOX_HAVE_DOT_CONFIG=y
ELBOX_FIRMWARE_VERSION="1.05"
ELBOX_FIRMWARE_REVISION="b03"
ELBOX_FIRMWARE_REGION=""





ELBOX_FIRMWARE_SIGNATURE="N/A"























































































































































ELBOX_BOARD_WRGAC37=y
ELBOX_BOARD_NAME="wrgac37"
ELBOX_BSP_QCA956X=y
ELBOX_BSP_NAME="QCA956X-2.6.31-LSDK-10.2-00082-4"
ELBOX_LINUX_MAJOR=2
ELBOX_LINUX_MINOR=6
ELBOX_LINUX_BUILD=31
ELBOX_INSTALL_LIBGCC_A_SO=y
ELBOX_INSTALL_LIBRT_SO=y
ELBOX_INSTALL_LIBPTHREAD_SO=y










ELBOX_TEMPLATE_ARIES=y



ELBOX_PROJECT_SEATTLE=y
ELBOX_TEMPLATE_NAME="aries"
ELBOX_BRAND_NAME="dlink.2013gui"
ELBOX_MODEL_NAME="dir859"








ELBOX_ARIES_SESSION_BASE="/runtime/session"




ELBOX_ARIES_FEATURE_ROUTER_GATEWAY=y

ELBOX_ARIES_USE_DANIELS_CONE_NAT=y





ELBOX_TEMPLATE_ARIES_NEW_WIFI_UID=y























ELBOX_BRAND_ARIES_DLINK_2013GUI=y















ELBOX_MODEL_ARIES_DLINK_2013GUI_DIR859=y










ELBOX_USE_IPV6=y

















ELBOX_CREATE_LANGUAGE_PACK=y













































ELBOX_BUSYBOX=y


ELBOX_PROGS_GPL_BUSYBOX_1_14_1=y





















ELBOX_USE_DNS=y

ELBOX_PROGS_GPL_DNSMASQ=y




ELBOX_PROGS_GPL_DNSMASQ_HAVE_BROKEN_RTC=y
ELBOX_PROGS_GPL_DNSMASQ_NO_TFTP=y
ELBOX_PROGS_GPL_DNSMASQ_NOUSER_ALPHA=y
ELBOX_PROGS_GPL_DNSMASQ_NOPRCTL_ALPHA=y
ELBOX_PROGS_GPL_DNSMASQ_HELPER_SUPPORT_ALPHA=y
ELBOX_PROGS_GPL_DNSMASQ_ADVANCE_DNS_SERVICE_ALPHA=y







ELBOX_HTTPD=y


ELBOX_PROGS_GPL_MATHOPD_16=y












ELBOX_PROGS_GPL_IPROUTE2_2_6_33=y



ELBOX_IPTABLES=y




ELBOX_PROGS_GPL_IPTABLES_1_4_7=y


ELBOX_IPTABLES_L7_EXT=y
ELBOX_IPTABLES_RTL_DST_MAC_SUPPORT=y

ELBOX_MDNSRESPONDER=y

ELBOX_PROGS_GPL_MDNSRESPONDER_544=y



ELBOX_PROGS_GPL_NSBBOX=y





CONFIG_NSBBOX_BRCTL=y
CONFIG_NSBBOX_BRCTL_BWCTRL=y

CONFIG_NSBBOX_BRCTL_PORTFORWARD=y














CONFIG_NSBBOX_NTPCLIENT=y
CONFIG_NSBBOX_SMTPCLIENT=y
CONFIG_NSBBOX_VCONFIG=y


ELBOX_PPPD=y
ELBOX_PROGS_GPL_PPPD_ALPHA=y




ELBOX_PROGS_GPL_PPPD_ACCEL_PPTP=y
ELBOX_PROGS_GPL_PPPD_ACCEL_PPTP_PLUS=y









ELBOX_PROGS_GPL_RADVD_NOUSER_ALPHA=y
ELBOX_PROGS_GPL_RADVD_NOLIBFL=y

ELBOX_PROGS_GPL_RADVD_1_8=y












ELBOX_PROGS_GPL_TELNETD=y






ELBOX_UDHCP=y




ELBOX_PROGS_GPL_UDHCP_REQUEST_BROADCAST=y

ELBOX_PROGS_GPL_UDHCPCD=y

ELBOX_PROGS_GPL_UDHCP_HOLD_LAN_IP=y



ELBOX_PROGS_GPL_WIDE_DHCPV6=y

ELBOX_PROGS_GPL_WIRELESS_TOOLS_ATHEROS_29=y




CONFIG_IWLIST_APSCANN=y













ELBOX_PROGS_GPL_NDISC6_0_9_9=y











ELBOX_PROGS_GPL_MTDUTILS=y





ELBOX_LIBNL=y

ELBOX_PROGS_GPL_LIBNL_TINY=y
ELBOX_PROGS_GPL_LIB_GSASL=y
ELBOX_PROGS_GPL_LIB_GSASL_0_2_6=y
ELBOX_OPENSSL=y






ELBOX_PROGS_GPL_OPENSSL_098ZC=y

ELBOX_ZLIB=y
ELBOX_PROGS_GPL_ZLIB_123=y
ELBOX_PROGS_GPL_EMAILCLIENT=y



ELBOX_PROGS_GPL_LIBICONV_1_9_1=y









ELBOX_XMLDB=y

ELBOX_PROGS_PRIV_XMLDB3=y





ELBOX_PROGS_PRIV_RGBIN=y



















CONFIG_RGBIN_SEAMA=y
CONFIG_RGBIN_HTTPC=y
CONFIG_RGBIN_GENUUID=y
CONFIG_RGBIN_PFILE=y
CONFIG_RGBIN_SCUT=y







CONFIG_RGBIN_LOGIN=y
CONFIG_RGBIN_ARPPING=y
CONFIG_RGBIN_GETHOSTIP=y
CONFIG_RGBIN_GETBOOTVER=y


CONFIG_RGBIN_USOCKC=y
CONFIG_RGBIN_SUSOCKC=y









CONFIG_RGBIN_IPV6IP=y
CONFIG_RGBIN_IPV6PDIP=y


CONFIG_RGBIN_SYSLOGMSG=y








CONFIG_RGBIN_DEVDATA=y
CONFIG_RGBIN_DEVDATA_MTDBLOCK="/dev/mtdblock/2"
CONFIG_RGBIN_DEVDATA_OFFSET=0x0
CONFIG_RGBIN_DEVDATA_SIZE=0x10000




CONFIG_RGBIN_DEVCONF=y
CONFIG_RGBIN_DEVCONF_MTDBLOCK="/dev/mtdblock/3"
CONFIG_RGBIN_DEVCONF_OFFSET=0x0
CONFIG_RGBIN_DEVCONF_SIZE=0xd800
CONFIG_RGBIN_DEVCONF_SSL_OFFSET=0xd800
CONFIG_RGBIN_DEVCONF_SSL_SIZE=0x2800
CONFIG_RGBIN_RW_CHAR_MTD=y






CONFIG_RGBIN_TCPREQUEST=y







ELBOX_PROGS_PRIV_BWC=y






































ELBOX_PROGS_PRIV_WLAN_SDK_VERSION="SDK10.1.45"






ELBOX_PROGS_PRIV_MADWIFI_LSDK_WLAN_V10=y

























ELBOX_PROGS_PRIV_MRD=y



ELBOX_PROGS_PRIV_UPDATELEASES=y

ELBOX_PROGS_PRIV_PORTT=y


ELBOX_PROGS_PRIV_PROXYD=y

ELBOX_PROGS_PRIV_SMART404=y

ELBOX_DDNS=y





ELBOX_PROGS_PRIV_PEANUT=y


ELBOX_PROGS_PRIV_LLD2D=y


ELBOX_PROGS_PRIV_YAHOO_WIDGET=y
ELBOX_PROGS_PRIV_WIDGET=y





















ELBOX_PROGS_PRIV_SERVD=y
ELBOX_PROGS_PRIV_CGIBIN_ARIES=y








CONFIG_CGIBIN_ARIES_AUTH_USERNAME_CASELESS=y

CONFIG_CGIBIN_ARIES_PHPCGI=y
CONFIG_CGIBIN_ARIES_PHPCGI_MAXFILESIZE=0x80000
CONFIG_CGIBIN_ARIES_SESSIONCGI=y
CONFIG_CGIBIN_ARIES_CAPTCHACGI=y
CONFIG_CGIBIN_ARIES_HEDWIGCGI=y
CONFIG_CGIBIN_ARIES_PIGWIDGEONCGI=y
CONFIG_CGIBIN_ARIES_SERVICECGI=y
CONFIG_CGIBIN_ARIES_CONNTRACKCGI=y
CONFIG_CGIBIN_ARIES_FILELOAD=y
CONFIG_CGIBIN_ARIES_DLCONFIG_FILE="config.bin"
CONFIG_CGIBIN_ARIES_FILELOAD_MAXCODESIZE=0x100000
CONFIG_CGIBIN_ARIES_FWUPDATE_MAXCODESIZE=0x1e20000
CONFIG_CGIBIN_ARIES_FWUPDATE_MTDBLOCK="/dev/mtdblock/1"
CONFIG_CGIBIN_ARIES_FWUPDATER=y
CONFIG_CGIBIN_ARIES_HNAP=y
CONFIG_CGIBIN_ARIES_HNAP_UI=y





CONFIG_CGIBIN_ARIES_SSDPCGI=y
CONFIG_CGIBIN_ARIES_SOAPCGI=y
CONFIG_CGIBIN_ARIES_GENACGI=y






ELBOX_PROGS_PRIV_VERIFICATION_CODE=y

ELBOX_PROGS_PRIV_CWMHELPER=y
ELBOX_PROGS_PRIV_LOGD=y

CONFIG_LOGD_PHP_HELPER="/etc/services/LOG/logd_helper.php"
CONFIG_LOGD_KLOG_INF_TABLE_SIZE=8


ELBOX_PROGS_PRIV_DDNSD=y

ELBOX_PROGS_PRIV_DDNSD_HELPER="/etc/scripts/ddnsd_helper.sh"

ELBOX_PROGS_PRIV_DDNS_SPEC_VER_1_09=y


















ELBOX_PROGS_PRIV_NAMERESOLV=y


ELBOX_UPDATEWIFISTATS=y

ELBOX_PROGS_PRIV_UPDATEWIFISTATS_ATHEROS=y







ELBOX_PROGS_PRIV_UPDATEWIFISTATS_ATHEROS_AP152=y



ELBOX_PROGS_PRIV_HOSTAPD_WPS=y



















ELBOX_PROGS_PRIV_WPS_2_0=y















ELBOX_PROGS_PRIV_ALPHA_STUNNEL=y
ELBOX_PROGS_PRIV_WEB_FILE_ACCESS=y


ELBOX_PROGS_PRIV_ARPMONITOR=y




















ELBOX_PROGS_PRIV_ART2=y
ELBOX_PROGS_PRIV_ART2_VER_4_9_815=y









ELBOX_COMLIB_MEM_HELPER_DISABLE=y
